1275

H   0.498736  -3.0 -9.392216
O  -0.250632  -3.0     -10.0
H       -1.0  -3.0 -9.392216
H  -1.501264  -2.0 -9.392216
O  -2.250632  -2.0     -10.0
H       -3.0  -2.0 -9.392216
H   2.498736  -2.0 -9.392216
O   1.749368  -2.0     -10.0
H        1.0  -2.0 -9.392216
H  -0.501264   0.0 -9.392216
O  -1.250632   0.0     -10.0
H       -2.0   0.0 -9.392216
H   3.498736   0.0 -9.392216
O   2.749368   0.0     -10.0
H        2.0   0.0 -9.392216
H   1.498736   1.0 -9.392216
O   0.749368   1.0     -10.0
H        0.0   1.0 -9.392216
H  -1.501264   2.0 -9.392216
O  -2.250632   2.0     -10.0
H       -3.0   2.0 -9.392216
H   0.498736   3.0 -9.392216
O  -0.250632   3.0     -10.0
H       -1.0   3.0 -9.392216
H  -0.501264  -5.0 -8.392216
O  -1.250632  -5.0      -9.0
H       -2.0  -5.0 -8.392216
H   2.498736  -5.0 -8.392216
O   1.749368  -5.0      -9.0
H        1.0  -5.0 -8.392216
H  -2.501264  -4.0 -8.392216
O  -3.250632  -4.0      -9.0
H       -4.0  -4.0 -8.392216
H   4.498736  -3.0 -8.392216
O   3.749368  -3.0      -9.0
H        3.0  -3.0 -8.392216
H  -3.501264  -2.0 -8.392216
O  -4.250632  -2.0      -9.0
H       -5.0  -2.0 -8.392216
H   5.498736  -1.0 -8.392216
O   4.749368  -1.0      -9.0
H        4.0  -1.0 -8.392216
H  -4.501264   0.0 -8.392216
O  -5.250632   0.0      -9.0
H       -6.0   0.0 -8.392216
H  -3.501264   2.0 -8.392216
O  -4.250632   2.0      -9.0
H       -5.0   2.0 -8.392216
H   3.498736   2.0 -8.392216
O   2.749368   2.0      -9.0
H        2.0   2.0 -8.392216
H  -2.501264   4.0 -8.392216
O  -3.250632   4.0      -9.0
H       -4.0   4.0 -8.392216
H   2.498736   4.0 -8.392216
O   1.749368   4.0      -9.0
H        1.0   4.0 -8.392216
H  -0.501264   5.0 -8.392216
O  -1.250632   5.0      -9.0
H       -2.0   5.0 -8.392216
H   4.498736  -5.0 -7.392216
O   3.749368  -5.0      -8.0
H        3.0  -5.0 -7.392216
H  -4.501264  -4.0 -7.392216
O  -5.250632  -4.0      -8.0
H       -6.0  -4.0 -7.392216
H  -0.501264  -3.0 -7.392216
O  -1.250632  -3.0      -8.0
H       -2.0  -3.0 -7.392216
H   2.498736  -3.0 -7.392216
O   1.749368  -3.0      -8.0
H        1.0  -3.0 -7.392216
H   6.498736  -3.0 -7.392216
O   5.749368  -3.0      -8.0
H        5.0  -3.0 -7.392216
H  -5.501264  -2.0 -7.392216
O  -6.250632  -2.0      -8.0
H       -7.0  -2.0 -7.392216
H  -1.501264  -1.0 -7.392216
O  -2.250632  -1.0      -8.0
H       -3.0  -1.0 -7.392216
H   1.498736  -1.0 -7.392216
O   0.749368  -1.0      -8.0
H        0.0  -1.0 -7.392216
H   7.498736   0.0 -7.392216
O   6.749368   0.0      -8.0
H        6.0   0.0 -7.392216
H  -0.501264   1.0 -7.392216
O  -1.250632   1.0      -8.0
H       -2.0   1.0 -7.392216
H   5.498736   1.0 -7.392216
O   4.749368   1.0      -8.0
H        4.0   1.0 -7.392216
H  -5.501264   2.0 -7.392216
O  -6.250632   2.0      -8.0
H       -7.0   2.0 -7.392216
H   1.498736   2.0 -7.392216
O   0.749368   2.0      -8.0
H        0.0   2.0 -7.392216
H   6.498736   3.0 -7.392216
O   5.749368   3.0      -8.0
H        5.0   3.0 -7.392216
H  -4.501264   4.0 -7.392216
O  -5.250632   4.0      -8.0
H       -6.0   4.0 -7.392216
H   4.498736   4.0 -7.392216
O   3.749368   4.0      -8.0
H        3.0   4.0 -7.392216
H   1.498736   6.0 -7.392216
O   0.749368   6.0      -8.0
H        0.0   6.0 -7.392216
H  -2.501264  -7.0 -6.392216
O  -3.250632  -7.0      -7.0
H       -4.0  -7.0 -6.392216
H   0.498736  -7.0 -6.392216
O  -0.250632  -7.0      -7.0
H       -1.0  -7.0 -6.392216
H   3.498736  -7.0 -6.392216
O   2.749368  -7.0      -7.0
H        2.0  -7.0 -6.392216
H  -1.501264  -5.0 -6.392216
O  -2.250632  -5.0      -7.0
H       -3.0  -5.0 -6.392216
H   1.498736  -5.0 -6.392216
O   0.749368  -5.0      -7.0
H        0.0  -5.0 -6.392216
H   6.498736  -5.0 -6.392216
O   5.749368  -5.0      -7.0
H        5.0  -5.0 -6.392216
H  -2.501264  -3.0 -6.392216
O  -3.250632  -3.0      -7.0
H       -4.0  -3.0 -6.392216
H   4.498736  -2.0 -6.392216
O   3.749368  -2.0      -7.0
H        3.0  -2.0 -6.392216
H  -3.501264  -1.0 -6.392216
O  -4.250632  -1.0      -7.0
H       -5.0  -1.0 -6.392216
H  -6.501264   0.0 -6.392216
O  -7.250632   0.0      -7.0
H       -8.0   0.0 -6.392216
H   3.498736   0.0 -6.392216
O   2.749368   0.0      -7.0
H        2.0   0.0 -6.392216
H  -2.501264   1.0 -6.392216
O  -3.250632   1.0      -7.0
H       -4.0   1.0 -6.392216
H  -1.501264   3.0 -6.392216
O  -2.250632   3.0      -7.0
H       -3.0   3.0 -6.392216
H   0.498736   4.0 -6.392216
O  -0.250632   4.0      -7.0
H       -1.0   4.0 -6.392216
H  -2.501264   5.0 -6.392216
O  -3.250632   5.0      -7.0
H       -4.0   5.0 -6.392216
H   6.498736   5.0 -6.392216
O   5.749368   5.0      -7.0
H        5.0   5.0 -6.392216
H  -0.501264   6.0 -6.392216
O  -1.250632   6.0      -7.0
H       -2.0   6.0 -6.392216
H   3.498736   6.0 -6.392216
O   2.749368   6.0      -7.0
H        2.0   6.0 -6.392216
H   5.498736  -7.0 -5.392216
O   4.749368  -7.0      -6.0
H        4.0  -7.0 -5.392216
H  -4.501264  -6.0 -5.392216
O  -5.250632  -6.0      -6.0
H       -6.0  -6.0 -5.392216
H   3.498736  -5.0 -5.392216
O   2.749368  -5.0      -6.0
H        2.0  -5.0 -5.392216
H  -6.501264  -4.0 -5.392216
O  -7.250632  -4.0      -6.0
H       -8.0  -4.0 -5.392216
H  -4.501264  -3.0 -5.392216
O  -5.250632  -3.0      -6.0
H       -6.0  -3.0 -5.392216
H   0.498736  -3.0 -5.392216
O  -0.250632  -3.0      -6.0
H       -1.0  -3.0 -5.392216
H   7.498736  -3.0 -5.392216
O   6.749368  -3.0      -6.0
H        6.0  -3.0 -5.392216
H   2.498736  -2.0 -5.392216
O   1.749368  -2.0      -6.0
H        1.0  -2.0 -5.392216
H  -0.501264  -1.0 -5.392216
O  -1.250632  -1.0      -6.0
H       -2.0  -1.0 -5.392216
H   6.498736  -1.0 -5.392216
O   5.749368  -1.0      -6.0
H        5.0  -1.0 -5.392216
H   1.498736   0.0 -5.392216
O   0.749368   0.0      -6.0
H        0.0   0.0 -5.392216
H   8.498736   0.0 -5.392216
O   7.749368   0.0      -6.0
H        7.0   0.0 -5.392216
H  -4.501264   1.0 -5.392216
O  -5.250632   1.0      -6.0
H       -6.0   1.0 -5.392216
H  -6.501264   2.0 -5.392216
O  -7.250632   2.0      -6.0
H       -8.0   2.0 -5.392216
H   0.498736   2.0 -5.392216
O  -0.250632   2.0      -6.0
H       -1.0   2.0 -5.392216
H   3.498736   2.0 -5.392216
O   2.749368   2.0      -6.0
H        2.0   2.0 -5.392216
H   6.498736   2.0 -5.392216
O   5.749368   2.0      -6.0
H        5.0   2.0 -5.392216
H  -3.501264   3.0 -5.392216
O  -4.250632   3.0      -6.0
H       -5.0   3.0 -5.392216
H   8.498736   3.0 -5.392216
O   7.749368   3.0      -6.0
H        7.0   3.0 -5.392216
H  -5.501264   4.0 -5.392216
O  -6.250632   4.0      -6.0
H       -7.0   4.0 -5.392216
H   2.498736   4.0 -5.392216
O   1.749368   4.0      -6.0
H        1.0   4.0 -5.392216
H  -4.501264   6.0 -5.392216
O  -5.250632   6.0      -6.0
H       -6.0   6.0 -5.392216
H  -2.501264   7.0 -5.392216
O  -3.250632   7.0      -6.0
H       -4.0   7.0 -5.392216
H   1.498736   7.0 -5.392216
O   0.749368   7.0      -6.0
H        0.0   7.0 -5.392216
H   5.498736   7.0 -5.392216
O   4.749368   7.0      -6.0
H        4.0   7.0 -5.392216
H  -0.501264   8.0 -5.392216
O  -1.250632   8.0      -6.0
H       -2.0   8.0 -5.392216
H   3.498736   8.0 -5.392216
O   2.749368   8.0      -6.0
H        2.0   8.0 -5.392216
H  -0.501264  -9.0 -4.392216
O  -1.250632  -9.0      -5.0
H       -2.0  -9.0 -4.392216
H   2.498736  -9.0 -4.392216
O   1.749368  -9.0      -5.0
H        1.0  -9.0 -4.392216
H  -3.501264  -8.0 -4.392216
O  -4.250632  -8.0      -5.0
H       -5.0  -8.0 -4.392216
H  -1.501264  -7.0 -4.392216
O  -2.250632  -7.0      -5.0
H       -3.0  -7.0 -4.392216
H   1.498736  -7.0 -4.392216
O   0.749368  -7.0      -5.0
H        0.0  -7.0 -4.392216
H  -2.501264  -5.0 -4.392216
O  -3.250632  -5.0      -5.0
H       -4.0  -5.0 -4.392216
H   0.498736  -5.0 -4.392216
O  -0.250632  -5.0      -5.0
H       -1.0  -5.0 -4.392216
H   5.498736  -5.0 -4.392216
O   4.749368  -5.0      -5.0
H        4.0  -5.0 -4.392216
H  -1.501264  -3.0 -4.392216
O  -2.250632  -3.0      -5.0
H       -3.0  -3.0 -4.392216
H   4.498736  -3.0 -4.392216
O   3.749368  -3.0      -5.0
H        3.0  -3.0 -4.392216
H  -7.501264  -2.0 -4.392216
O  -8.250632  -2.0      -5.0
H       -9.0  -2.0 -4.392216
H  -5.501264  -1.0 -4.392216
O  -6.250632  -1.0      -5.0
H       -7.0  -1.0 -4.392216
H  -2.501264  -1.0 -4.392216
O  -3.250632  -1.0      -5.0
H       -4.0  -1.0 -4.392216
H   4.498736   0.0 -4.392216
O   3.749368   0.0      -5.0
H        3.0   0.0 -4.392216
H  -1.501264   1.0 -4.392216
O  -2.250632   1.0      -5.0
H       -3.0   1.0 -4.392216
H  -1.501264   4.0 -4.392216
O  -2.250632   4.0      -5.0
H       -3.0   4.0 -4.392216
H   4.498736   4.0 -4.392216
O   3.749368   4.0      -5.0
H        3.0   4.0 -4.392216
H   0.498736   5.0 -4.392216
O  -0.250632   5.0      -5.0
H       -1.0   5.0 -4.392216
H   7.498736   5.0 -4.392216
O   6.749368   5.0      -5.0
H        6.0   5.0 -4.392216
H   1.498736   9.0 -4.392216
O   0.749368   9.0      -5.0
H        0.0   9.0 -4.392216
H   4.498736  -8.0 -3.392216
O   3.749368  -8.0      -4.0
H        3.0  -8.0 -3.392216
H  -5.501264  -7.0 -3.392216
O  -6.250632  -7.0      -4.0
H       -7.0  -7.0 -3.392216
H   6.498736  -7.0 -3.392216
O   5.749368  -7.0      -4.0
H        5.0  -7.0 -3.392216
H   3.498736  -6.0 -3.392216
O   2.749368  -6.0      -4.0
H        2.0  -6.0 -3.392216
H  -6.501264  -5.0 -3.392216
O  -7.250632  -5.0      -4.0
H       -8.0  -5.0 -3.392216
H   7.498736  -5.0 -3.392216
O   6.749368  -5.0      -4.0
H        6.0  -5.0 -3.392216
H  -4.501264  -4.0 -3.392216
O  -5.250632  -4.0      -4.0
H       -6.0  -4.0 -3.392216
H   2.498736  -4.0 -3.392216
O   1.749368  -4.0      -4.0
H        1.0  -4.0 -3.392216
H   6.498736  -3.0 -3.392216
O   5.749368  -3.0      -4.0
H        5.0  -3.0 -3.392216
H   9.498736  -3.0 -3.392216
O   8.749368  -3.0      -4.0
H        8.0  -3.0 -3.392216
H   0.498736  -2.0 -3.392216
O  -0.250632  -2.0      -4.0
H       -1.0  -2.0 -3.392216
H   2.498736  -1.0 -3.392216
O   1.749368  -1.0      -4.0
H        1.0  -1.0 -3.392216
H   7.498736  -1.0 -3.392216
O   6.749368  -1.0      -4.0
H        6.0  -1.0 -3.392216
H  -7.501264   0.0 -3.392216
O  -8.250632   0.0      -4.0
H       -9.0   0.0 -3.392216
H   9.498736   0.0 -3.392216
O   8.749368   0.0      -4.0
H        8.0   0.0 -3.392216
H  -5.501264   1.0 -3.392216
O  -6.250632   1.0      -4.0
H       -7.0   1.0 -3.392216
H   0.498736   1.0 -3.392216
O  -0.250632   1.0      -4.0
H       -1.0   1.0 -3.392216
H   6.498736   1.0 -3.392216
O   5.749368   1.0      -4.0
H        5.0   1.0 -3.392216
H  -3.501264   2.0 -3.392216
O  -4.250632   2.0      -4.0
H       -5.0   2.0 -3.392216
H   2.498736   2.0 -3.392216
O   1.749368   2.0      -4.0
H        1.0   2.0 -3.392216
H   8.498736   2.0 -3.392216
O   7.749368   2.0      -4.0
H        7.0   2.0 -3.392216
H  -7.501264   3.0 -3.392216
O  -8.250632   3.0      -4.0
H       -9.0   3.0 -3.392216
H  -4.501264   4.0 -3.392216
O  -5.250632   4.0      -4.0
H       -6.0   4.0 -3.392216
H  -6.501264   5.0 -3.392216
O  -7.250632   5.0      -4.0
H       -8.0   5.0 -3.392216
H   2.498736   5.0 -3.392216
O   1.749368   5.0      -4.0
H        1.0   5.0 -3.392216
H  -3.501264   6.0 -3.392216
O  -4.250632   6.0      -4.0
H       -5.0   6.0 -3.392216
H   4.498736   6.0 -3.392216
O   3.749368   6.0      -4.0
H        3.0   6.0 -3.392216
H  -5.501264   7.0 -3.392216
O  -6.250632   7.0      -4.0
H       -7.0   7.0 -3.392216
H  -1.501264   7.0 -3.392216
O  -2.250632   7.0      -4.0
H       -3.0   7.0 -3.392216
H   6.498736   7.0 -3.392216
O   5.749368   7.0      -4.0
H        5.0   7.0 -3.392216
H  -2.501264   9.0 -3.392216
O  -3.250632   9.0      -4.0
H       -4.0   9.0 -3.392216
H   3.498736   9.0 -3.392216
O   2.749368   9.0      -4.0
H        2.0   9.0 -3.392216
H   0.498736 -10.0 -2.392216
O  -0.250632 -10.0      -3.0
H       -1.0 -10.0 -2.392216
H  -2.501264  -9.0 -2.392216
O  -3.250632  -9.0      -3.0
H       -4.0  -9.0 -2.392216
H  -0.501264  -8.0 -2.392216
O  -1.250632  -8.0      -3.0
H       -2.0  -8.0 -2.392216
H   2.498736  -8.0 -2.392216
O   1.749368  -8.0      -3.0
H        1.0  -8.0 -2.392216
H  -3.501264  -7.0 -2.392216
O  -4.250632  -7.0      -3.0
H       -5.0  -7.0 -2.392216
H  -1.501264  -6.0 -2.392216
O  -2.250632  -6.0      -3.0
H       -3.0  -6.0 -2.392216
H   1.498736  -6.0 -2.392216
O   0.749368  -6.0      -3.0
H        0.0  -6.0 -2.392216
H  -2.501264  -4.0 -2.392216
O  -3.250632  -4.0      -3.0
H       -4.0  -4.0 -2.392216
H   0.498736  -4.0 -2.392216
O  -0.250632  -4.0      -3.0
H       -1.0  -4.0 -2.392216
H   4.498736  -4.0 -2.392216
O   3.749368  -4.0      -3.0
H        3.0  -4.0 -2.392216
H  -7.501264  -3.0 -2.392216
O  -8.250632  -3.0      -3.0
H       -9.0  -3.0 -2.392216
H  -5.501264  -2.0 -2.392216
O  -6.250632  -2.0      -3.0
H       -7.0  -2.0 -2.392216
H  -1.501264  -2.0 -2.392216
O  -2.250632  -2.0      -3.0
H       -3.0  -2.0 -2.392216
H  -3.501264  -1.0 -2.392216
O  -4.250632  -1.0      -3.0
H       -5.0  -1.0 -2.392216
H   4.498736  -1.0 -2.392216
O   3.749368  -1.0      -3.0
H        3.0  -1.0 -2.392216
H  -1.501264   2.0 -2.392216
O  -2.250632   2.0      -3.0
H       -3.0   2.0 -2.392216
H   4.498736   2.0 -2.392216
O   3.749368   2.0      -3.0
H        3.0   2.0 -2.392216
H   0.498736   3.0 -2.392216
O  -0.250632   3.0      -3.0
H       -1.0   3.0 -2.392216
H   6.498736   3.0 -2.392216
O   5.749368   3.0      -3.0
H        5.0   3.0 -2.392216
H  -2.501264   4.0 -2.392216
O  -3.250632   4.0      -3.0
H       -4.0   4.0 -2.392216
H   8.498736   4.0 -2.392216
O   7.749368   4.0      -3.0
H        7.0   4.0 -2.392216
H  -0.501264   5.0 -2.392216
O  -1.250632   5.0      -3.0
H       -2.0   5.0 -2.392216
H   0.498736   7.0 -2.392216
O  -0.250632   7.0      -3.0
H       -1.0   7.0 -2.392216
H  -0.501264   9.0 -2.392216
O  -1.250632   9.0      -3.0
H       -2.0   9.0 -2.392216
H   2.498736 -10.0 -1.392216
O   1.749368 -10.0      -2.0
H        1.0 -10.0 -1.392216
H   4.498736  -9.0 -1.392216
O   3.749368  -9.0      -2.0
H        3.0  -9.0 -1.392216
H   6.498736  -8.0 -1.392216
O   5.749368  -8.0      -2.0
H        5.0  -8.0 -1.392216
H  -6.501264  -6.0 -1.392216
O  -7.250632  -6.0      -2.0
H       -8.0  -6.0 -1.392216
H   4.498736  -6.0 -1.392216
O   3.749368  -6.0      -2.0
H        3.0  -6.0 -1.392216
H   7.498736  -6.0 -1.392216
O   6.749368  -6.0      -2.0
H        6.0  -6.0 -1.392216
H  -4.501264  -5.0 -1.392216
O  -5.250632  -5.0      -2.0
H       -6.0  -5.0 -1.392216
H   6.498736  -4.0 -1.392216
O   5.749368  -4.0      -2.0
H        5.0  -4.0 -1.392216
H   9.498736  -4.0 -1.392216
O   8.749368  -4.0      -2.0
H        8.0  -4.0 -1.392216
H   2.498736  -3.0 -1.392216
O   1.749368  -3.0      -2.0
H        1.0  -3.0 -1.392216
H   7.498736  -2.0 -1.392216
O   6.749368  -2.0      -2.0
H        6.0  -2.0 -1.392216
H  -8.501264  -1.0 -1.392216
O  -9.250632  -1.0      -2.0
H      -10.0  -1.0 -1.392216
H   0.498736  -1.0 -1.392216
O  -0.250632  -1.0      -2.0
H       -1.0  -1.0 -1.392216
H   9.498736  -1.0 -1.392216
O   8.749368  -1.0      -2.0
H        8.0  -1.0 -1.392216
H  -6.501264   0.0 -1.392216
O  -7.250632   0.0      -2.0
H       -8.0   0.0 -1.392216
H  -1.501264   0.0 -1.392216
O  -2.250632   0.0      -2.0
H       -3.0   0.0 -1.392216
H   2.498736   0.0 -1.392216
O   1.749368   0.0      -2.0
H        1.0   0.0 -1.392216
H   6.498736   0.0 -1.392216
O   5.749368   0.0      -2.0
H        5.0   0.0 -1.392216
H  -4.501264   1.0 -1.392216
O  -5.250632   1.0      -2.0
H       -6.0   1.0 -1.392216
H   8.498736   1.0 -1.392216
O   7.749368   1.0      -2.0
H        7.0   1.0 -1.392216
H  -8.501264   2.0 -1.392216
O  -9.250632   2.0      -2.0
H      -10.0   2.0 -1.392216
H  -6.501264   3.0 -1.392216
O  -7.250632   3.0      -2.0
H       -8.0   3.0 -1.392216
H   2.498736   3.0 -1.392216
O   1.749368   3.0      -2.0
H        1.0   3.0 -1.392216
H   4.498736   4.0 -1.392216
O   3.749368   4.0      -2.0
H        3.0   4.0 -1.392216
H  -7.501264   5.0 -1.392216
O  -8.250632   5.0      -2.0
H       -9.0   5.0 -1.392216
H  -4.501264   5.0 -1.392216
O  -5.250632   5.0      -2.0
H       -6.0   5.0 -1.392216
H   1.498736   5.0 -1.392216
O   0.749368   5.0      -2.0
H        0.0   5.0 -1.392216
H   6.498736   5.0 -1.392216
O   5.749368   5.0      -2.0
H        5.0   5.0 -1.392216
H  -2.501264   6.0 -1.392216
O  -3.250632   6.0      -2.0
H       -4.0   6.0 -1.392216
H   3.498736   6.0 -1.392216
O   2.749368   6.0      -2.0
H        2.0   6.0 -1.392216
H   8.498736   6.0 -1.392216
O   7.749368   6.0      -2.0
H        7.0   6.0 -1.392216
H   5.498736   7.0 -1.392216
O   4.749368   7.0      -2.0
H        4.0   7.0 -1.392216
H  -4.501264   8.0 -1.392216
O  -5.250632   8.0      -2.0
H       -6.0   8.0 -1.392216
H   2.498736   8.0 -1.392216
O   1.749368   8.0      -2.0
H        1.0   8.0 -1.392216
H   4.498736   9.0 -1.392216
O   3.749368   9.0      -2.0
H        3.0   9.0 -1.392216
H  -1.501264 -10.0 -0.392216
O  -2.250632 -10.0      -1.0
H       -3.0 -10.0 -0.392216
H  -3.501264  -9.0 -0.392216
O  -4.250632  -9.0      -1.0
H       -5.0  -9.0 -0.392216
H   0.498736  -9.0 -0.392216
O  -0.250632  -9.0      -1.0
H       -1.0  -9.0 -0.392216
H  -4.501264  -7.0 -0.392216
O  -5.250632  -7.0      -1.0
H       -6.0  -7.0 -0.392216
H  -1.501264  -7.0 -0.392216
O  -2.250632  -7.0      -1.0
H       -3.0  -7.0 -0.392216
H   1.498736  -7.0 -0.392216
O   0.749368  -7.0      -1.0
H        0.0  -7.0 -0.392216
H  -2.501264  -5.0 -0.392216
O  -3.250632  -5.0      -1.0
H       -4.0  -5.0 -0.392216
H   0.498736  -5.0 -0.392216
O  -0.250632  -5.0      -1.0
H       -1.0  -5.0 -0.392216
H  -7.501264  -4.0 -0.392216
O  -8.250632  -4.0      -1.0
H       -9.0  -4.0 -0.392216
H  -5.501264  -3.0 -0.392216
O  -6.250632  -3.0      -1.0
H       -7.0  -3.0 -0.392216
H  -1.501264  -3.0 -0.392216
O  -2.250632  -3.0      -1.0
H       -3.0  -3.0 -0.392216
H   4.498736  -3.0 -0.392216
O   3.749368  -3.0      -1.0
H        3.0  -3.0 -0.392216
H  -3.501264  -2.0 -0.392216
O  -4.250632  -2.0      -1.0
H       -5.0  -2.0 -0.392216
H   4.498736   0.0 -0.392216
O   3.749368   0.0      -1.0
H        3.0   0.0 -0.392216
H   0.498736   1.0 -0.392216
O  -0.250632   1.0      -1.0
H       -1.0   1.0 -0.392216
H  -2.501264   2.0 -0.392216
O  -3.250632   2.0      -1.0
H       -4.0   2.0 -0.392216
H   5.498736   2.0 -0.392216
O   4.749368   2.0      -1.0
H        4.0   2.0 -0.392216
H  -4.501264   3.0 -0.392216
O  -5.250632   3.0      -1.0
H       -6.0   3.0 -0.392216
H  -0.501264   3.0 -0.392216
O  -1.250632   3.0      -1.0
H       -2.0   3.0 -0.392216
H   7.498736   3.0 -0.392216
O   6.749368   3.0      -1.0
H        6.0   3.0 -0.392216
H   9.498736   4.0 -0.392216
O   8.749368   4.0      -1.0
H        8.0   4.0 -0.392216
H  -0.501264   6.0 -0.392216
O  -1.250632   6.0      -1.0
H       -2.0   6.0 -0.392216
H  -2.501264   8.0 -0.392216
O  -3.250632   8.0      -1.0
H       -4.0   8.0 -0.392216
H   0.498736   8.0 -0.392216
O  -0.250632   8.0      -1.0
H       -1.0   8.0 -0.392216
H   2.498736  -9.0  0.607784
O   1.749368  -9.0       0.0
H        1.0  -9.0  0.607784
H   4.498736  -8.0  0.607784
O   3.749368  -8.0       0.0
H        3.0  -8.0  0.607784
H   6.498736  -7.0  0.607784
O   5.749368  -7.0       0.0
H        5.0  -7.0  0.607784
H   3.498736  -6.0  0.607784
O   2.749368  -6.0       0.0
H        2.0  -6.0  0.607784
H   8.498736  -6.0  0.607784
O   7.749368  -6.0       0.0
H        7.0  -6.0  0.607784
H  -5.501264  -5.0  0.607784
O  -6.250632  -5.0       0.0
H       -7.0  -5.0  0.607784
H   5.498736  -5.0  0.607784
O   4.749368  -5.0       0.0
H        4.0  -5.0  0.607784
H   2.498736  -4.0  0.607784
O   1.749368  -4.0       0.0
H        1.0  -4.0  0.607784
H   7.498736  -4.0  0.607784
O   6.749368  -4.0       0.0
H        6.0  -4.0  0.607784
H   0.498736  -3.0  0.607784
O  -0.250632  -3.0       0.0
H       -1.0  -3.0  0.607784
H   9.498736  -3.0  0.607784
O   8.749368  -3.0       0.0
H        8.0  -3.0  0.607784
H  -8.501264  -2.0  0.607784
O  -9.250632  -2.0       0.0
H      -10.0  -2.0  0.607784
H   6.498736  -2.0  0.607784
O   5.749368  -2.0       0.0
H        5.0  -2.0  0.607784
H  -6.501264  -1.0  0.607784
O  -7.250632  -1.0       0.0
H       -8.0  -1.0  0.607784
H  -1.501264  -1.0  0.607784
O  -2.250632  -1.0       0.0
H       -3.0  -1.0  0.607784
H   1.498736  -1.0  0.607784
O   0.749368  -1.0       0.0
H        0.0  -1.0  0.607784
H   8.498736  -1.0  0.607784
O   7.749368  -1.0       0.0
H        7.0  -1.0  0.607784
H  -4.501264   0.0  0.607784
O  -5.250632   0.0       0.0
H       -6.0   0.0  0.607784
H  10.498736   0.0  0.607784
O   9.749368   0.0       0.0
H        9.0   0.0  0.607784
H  -8.501264   1.0  0.607784
O  -9.250632   1.0       0.0
H      -10.0   1.0  0.607784
H   2.498736   1.0  0.607784
O   1.749368   1.0       0.0
H        1.0   1.0  0.607784
H   7.498736   1.0  0.607784
O   6.749368   1.0       0.0
H        6.0   1.0  0.607784
H  -6.501264   2.0  0.607784
O  -7.250632   2.0       0.0
H       -8.0   2.0  0.607784
H   9.498736   2.0  0.607784
O   8.749368   2.0       0.0
H        8.0   2.0  0.607784
H   1.498736   3.0  0.607784
O   0.749368   3.0       0.0
H        0.0   3.0  0.607784
H  -7.501264   4.0  0.607784
O  -8.250632   4.0       0.0
H       -9.0   4.0  0.607784
H  -2.501264   4.0  0.607784
O  -3.250632   4.0       0.0
H       -4.0   4.0  0.607784
H   3.498736   4.0  0.607784
O   2.749368   4.0       0.0
H        2.0   4.0  0.607784
H  -5.501264   5.0  0.607784
O  -6.250632   5.0       0.0
H       -7.0   5.0  0.607784
H   5.498736   5.0  0.607784
O   4.749368   5.0       0.0
H        4.0   5.0  0.607784
H  -3.501264   6.0  0.607784
O  -4.250632   6.0       0.0
H       -5.0   6.0  0.607784
H   1.498736   6.0  0.607784
O   0.749368   6.0       0.0
H        0.0   6.0  0.607784
H   7.498736   6.0  0.607784
O   6.749368   6.0       0.0
H        6.0   6.0  0.607784
H   3.498736   7.0  0.607784
O   2.749368   7.0       0.0
H        2.0   7.0  0.607784
H   5.498736   8.0  0.607784
O   4.749368   8.0       0.0
H        4.0   8.0  0.607784
H   2.498736   9.0  0.607784
O   1.749368   9.0       0.0
H        1.0   9.0  0.607784
H  -0.501264 -10.0  1.607784
O  -1.250632 -10.0       1.0
H       -2.0 -10.0  1.607784
H  -2.501264  -9.0  1.607784
O  -3.250632  -9.0       1.0
H       -4.0  -9.0  1.607784
H  -4.501264  -8.0  1.607784
O  -5.250632  -8.0       1.0
H       -6.0  -8.0  1.607784
H   0.498736  -8.0  1.607784
O  -0.250632  -8.0       1.0
H       -1.0  -8.0  1.607784
H  -3.501264  -6.0  1.607784
O  -4.250632  -6.0       1.0
H       -5.0  -6.0  1.607784
H  -0.501264  -6.0  1.607784
O  -1.250632  -6.0       1.0
H       -2.0  -6.0  1.607784
H  -7.501264  -5.0  1.607784
O  -8.250632  -5.0       1.0
H       -9.0  -5.0  1.607784
H  -2.501264  -4.0  1.607784
O  -3.250632  -4.0       1.0
H       -4.0  -4.0  1.607784
H  -6.501264  -3.0  1.607784
O  -7.250632  -3.0       1.0
H       -8.0  -3.0  1.607784
H  -4.501264  -2.0  1.607784
O  -5.250632  -2.0       1.0
H       -6.0  -2.0  1.607784
H   3.498736  -2.0  1.607784
O   2.749368  -2.0       1.0
H        2.0  -2.0  1.607784
H   5.498736   0.0  1.607784
O   4.749368   0.0       1.0
H        4.0   0.0  1.607784
H  -2.501264   1.0  1.607784
O  -3.250632   1.0       1.0
H       -4.0   1.0  1.607784
H  -4.501264   2.0  1.607784
O  -5.250632   2.0       1.0
H       -6.0   2.0  1.607784
H  -0.501264   2.0  1.607784
O  -1.250632   2.0       1.0
H       -2.0   2.0  1.607784
H   4.498736   2.0  1.607784
O   3.749368   2.0       1.0
H        3.0   2.0  1.607784
H   6.498736   3.0  1.607784
O   5.749368   3.0       1.0
H        5.0   3.0  1.607784
H   8.498736   4.0  1.607784
O   7.749368   4.0       1.0
H        7.0   4.0  1.607784
H  -0.501264   5.0  1.607784
O  -1.250632   5.0       1.0
H       -2.0   5.0  1.607784
H  -5.501264   7.0  1.607784
O  -6.250632   7.0       1.0
H       -7.0   7.0  1.607784
H  -1.501264   7.0  1.607784
O  -2.250632   7.0       1.0
H       -3.0   7.0  1.607784
H  -3.501264   8.0  1.607784
O  -4.250632   8.0       1.0
H       -5.0   8.0  1.607784
H  -0.501264   9.0  1.607784
O  -1.250632   9.0       1.0
H       -2.0   9.0  1.607784
H   1.498736 -10.0  2.607784
O   0.749368 -10.0       2.0
H        0.0 -10.0  2.607784
H   3.498736  -9.0  2.607784
O   2.749368  -9.0       2.0
H        2.0  -9.0  2.607784
H   5.498736  -8.0  2.607784
O   4.749368  -8.0       2.0
H        4.0  -8.0  2.607784
H   2.498736  -7.0  2.607784
O   1.749368  -7.0       2.0
H        1.0  -7.0  2.607784
H  -5.501264  -6.0  2.607784
O  -6.250632  -6.0       2.0
H       -7.0  -6.0  2.607784
H   4.498736  -6.0  2.607784
O   3.749368  -6.0       2.0
H        3.0  -6.0  2.607784
H   7.498736  -6.0  2.607784
O   6.749368  -6.0       2.0
H        6.0  -6.0  2.607784
H   1.498736  -5.0  2.607784
O   0.749368  -5.0       2.0
H        0.0  -5.0  2.607784
H  -4.501264  -4.0  2.607784
O  -5.250632  -4.0       2.0
H       -6.0  -4.0  2.607784
H  -0.501264  -4.0  2.607784
O  -1.250632  -4.0       2.0
H       -2.0  -4.0  2.607784
H   3.498736  -4.0  2.607784
O   2.749368  -4.0       2.0
H        2.0  -4.0  2.607784
H   6.498736  -4.0  2.607784
O   5.749368  -4.0       2.0
H        5.0  -4.0  2.607784
H   8.498736  -3.0  2.607784
O   7.749368  -3.0       2.0
H        7.0  -3.0  2.607784
H  -2.501264  -2.0  2.607784
O  -3.250632  -2.0       2.0
H       -4.0  -2.0  2.607784
H   0.498736  -2.0  2.607784
O  -0.250632  -2.0       2.0
H       -1.0  -2.0  2.607784
H   5.498736  -2.0  2.607784
O   4.749368  -2.0       2.0
H        4.0  -2.0  2.607784
H  -8.501264  -1.0  2.607784
O  -9.250632  -1.0       2.0
H      -10.0  -1.0  2.607784
H   7.498736  -1.0  2.607784
O   6.749368  -1.0       2.0
H        6.0  -1.0  2.607784
H  -6.501264   0.0  2.607784
O  -7.250632   0.0       2.0
H       -8.0   0.0  2.607784
H  -0.501264   0.0  2.607784
O  -1.250632   0.0       2.0
H       -2.0   0.0  2.607784
H   2.498736   0.0  2.607784
O   1.749368   0.0       2.0
H        1.0   0.0  2.607784
H   9.498736   0.0  2.607784
O   8.749368   0.0       2.0
H        8.0   0.0  2.607784
H  -8.501264   2.0  2.607784
O  -9.250632   2.0       2.0
H      -10.0   2.0  2.607784
H   1.498736   2.0  2.607784
O   0.749368   2.0       2.0
H        0.0   2.0  2.607784
H   8.498736   2.0  2.607784
O   7.749368   2.0       2.0
H        7.0   2.0  2.607784
H  -6.501264   3.0  2.607784
O  -7.250632   3.0       2.0
H       -8.0   3.0  2.607784
H  -2.501264   3.0  2.607784
O  -3.250632   3.0       2.0
H       -4.0   3.0  2.607784
H  -4.501264   4.0  2.607784
O  -5.250632   4.0       2.0
H       -6.0   4.0  2.607784
H   2.498736   4.0  2.607784
O   1.749368   4.0       2.0
H        1.0   4.0  2.607784
H   4.498736   5.0  2.607784
O   3.749368   5.0       2.0
H        3.0   5.0  2.607784
H   6.498736   6.0  2.607784
O   5.749368   6.0       2.0
H        5.0   6.0  2.607784
H   0.498736   7.0  2.607784
O  -0.250632   7.0       2.0
H       -1.0   7.0  2.607784
H   2.498736   8.0  2.607784
O   1.749368   8.0       2.0
H        1.0   8.0  2.607784
H   4.498736   9.0  2.607784
O   3.749368   9.0       2.0
H        3.0   9.0  2.607784
H  -1.501264  -9.0  3.607784
O  -2.250632  -9.0       3.0
H       -3.0  -9.0  3.607784
H  -3.501264  -8.0  3.607784
O  -4.250632  -8.0       3.0
H       -5.0  -8.0  3.607784
H  -0.501264  -7.0  3.607784
O  -1.250632  -7.0       3.0
H       -2.0  -7.0  3.607784
H  -2.501264  -6.0  3.607784
O  -3.250632  -6.0       3.0
H       -4.0  -6.0  3.607784
H  -7.501264  -4.0  3.607784
O  -8.250632  -4.0       3.0
H       -9.0  -4.0  3.607784
H  -6.501264  -2.0  3.607784
O  -7.250632  -2.0       3.0
H       -8.0  -2.0  3.607784
H   2.498736  -2.0  3.607784
O   1.749368  -2.0       3.0
H        1.0  -2.0  3.607784
H  -4.501264  -1.0  3.607784
O  -5.250632  -1.0       3.0
H       -6.0  -1.0  3.607784
H  -2.501264   0.0  3.607784
O  -3.250632   0.0       3.0
H       -4.0   0.0  3.607784
H   4.498736   0.0  3.607784
O   3.749368   0.0       3.0
H        3.0   0.0  3.607784
H   6.498736   1.0  3.607784
O   5.749368   1.0       3.0
H        5.0   1.0  3.607784
H   3.498736   2.0  3.607784
O   2.749368   2.0       3.0
H        2.0   2.0  3.607784
H  -0.501264   3.0  3.607784
O  -1.250632   3.0       3.0
H       -2.0   3.0  3.607784
H   5.498736   3.0  3.607784
O   4.749368   3.0       3.0
H        4.0   3.0  3.607784
H   7.498736   4.0  3.607784
O   6.749368   4.0       3.0
H        6.0   4.0  3.607784
H  -6.501264   5.0  3.607784
O  -7.250632   5.0       3.0
H       -8.0   5.0  3.607784
H  -2.501264   5.0  3.607784
O  -3.250632   5.0       3.0
H       -4.0   5.0  3.607784
H   0.498736   5.0  3.607784
O  -0.250632   5.0       3.0
H       -1.0   5.0  3.607784
H  -4.501264   6.0  3.607784
O  -5.250632   6.0       3.0
H       -6.0   6.0  3.607784
H   2.498736   6.0  3.607784
O   1.749368   6.0       3.0
H        1.0   6.0  3.607784
H   4.498736   7.0  3.607784
O   3.749368   7.0       3.0
H        3.0   7.0  3.607784
H  -2.501264   8.0  3.607784
O  -3.250632   8.0       3.0
H       -4.0   8.0  3.607784
H   0.498736   9.0  3.607784
O  -0.250632   9.0       3.0
H       -1.0   9.0  3.607784
H   0.498736  -9.0  4.607784
O  -0.250632  -9.0       4.0
H       -1.0  -9.0  4.607784
H   2.498736  -8.0  4.607784
O   1.749368  -8.0       4.0
H        1.0  -8.0  4.607784
H   4.498736  -7.0  4.607784
O   3.749368  -7.0       4.0
H        3.0  -7.0  4.607784
H  -4.501264  -6.0  4.607784
O  -5.250632  -6.0       4.0
H       -6.0  -6.0  4.607784
H   1.498736  -6.0  4.607784
O   0.749368  -6.0       4.0
H        0.0  -6.0  4.607784
H   6.498736  -6.0  4.607784
O   5.749368  -6.0       4.0
H        5.0  -6.0  4.607784
H  -0.501264  -5.0  4.607784
O  -1.250632  -5.0       4.0
H       -2.0  -5.0  4.607784
H   3.498736  -5.0  4.607784
O   2.749368  -5.0       4.0
H        2.0  -5.0  4.607784
H  -5.501264  -4.0  4.607784
O  -6.250632  -4.0       4.0
H       -7.0  -4.0  4.607784
H  -2.501264  -4.0  4.607784
O  -3.250632  -4.0       4.0
H       -4.0  -4.0  4.607784
H   5.498736  -4.0  4.607784
O   4.749368  -4.0       4.0
H        4.0  -4.0  4.607784
H   8.498736  -4.0  4.607784
O   7.749368  -4.0       4.0
H        7.0  -4.0  4.607784
H   0.498736  -3.0  4.607784
O  -0.250632  -3.0       4.0
H       -1.0  -3.0  4.607784
H  -1.501264  -2.0  4.607784
O  -2.250632  -2.0       4.0
H       -3.0  -2.0  4.607784
H   4.498736  -2.0  4.607784
O   3.749368  -2.0       4.0
H        3.0  -2.0  4.607784
H   7.498736  -2.0  4.607784
O   6.749368  -2.0       4.0
H        6.0  -2.0  4.607784
H  -7.501264   0.0  4.607784
O  -8.250632   0.0       4.0
H       -9.0   0.0  4.607784
H   0.498736   0.0  4.607784
O  -0.250632   0.0       4.0
H       -1.0   0.0  4.607784
H   8.498736   0.0  4.607784
O   7.749368   0.0       4.0
H        7.0   0.0  4.607784
H  -5.501264   1.0  4.607784
O  -6.250632   1.0       4.0
H       -7.0   1.0  4.607784
H  -3.501264   2.0  4.607784
O  -4.250632   2.0       4.0
H       -5.0   2.0  4.607784
H   1.498736   3.0  4.607784
O   0.749368   3.0       4.0
H        0.0   3.0  4.607784
H   3.498736   4.0  4.607784
O   2.749368   4.0       4.0
H        2.0   4.0  4.607784
H   5.498736   5.0  4.607784
O   4.749368   5.0       4.0
H        4.0   5.0  4.607784
H  -0.501264   7.0  4.607784
O  -1.250632   7.0       4.0
H       -2.0   7.0  4.607784
H   2.498736   9.0  4.607784
O   1.749368   9.0       4.0
H        1.0   9.0  4.607784
H  -1.501264  -8.0  5.607784
O  -2.250632  -8.0       5.0
H       -3.0  -8.0  5.607784
H   2.498736  -3.0  5.607784
O   1.749368  -3.0       5.0
H        1.0  -3.0  5.607784
H  -5.501264  -2.0  5.607784
O  -6.250632  -2.0       5.0
H       -7.0  -2.0  5.607784
H  -3.501264  -1.0  5.607784
O  -4.250632  -1.0       5.0
H       -5.0  -1.0  5.607784
H  -1.501264   0.0  5.607784
O  -2.250632   0.0       5.0
H       -3.0   0.0  5.607784
H   2.498736   0.0  5.607784
O   1.749368   0.0       5.0
H        1.0   0.0  5.607784
H   5.498736   0.0  5.607784
O   4.749368   0.0       5.0
H        4.0   0.0  5.607784
H  -0.501264   2.0  5.607784
O  -1.250632   2.0       5.0
H       -2.0   2.0  5.607784
H   4.498736   2.0  5.607784
O   3.749368   2.0       5.0
H        3.0   2.0  5.607784
H   7.498736   2.0  5.607784
O   6.749368   2.0       5.0
H        6.0   2.0  5.607784
H  -6.501264   3.0  5.607784
O  -7.250632   3.0       5.0
H       -8.0   3.0  5.607784
H  -4.501264   4.0  5.607784
O  -5.250632   4.0       5.0
H       -6.0   4.0  5.607784
H  -1.501264   4.0  5.607784
O  -2.250632   4.0       5.0
H       -3.0   4.0  5.607784
H   1.498736   5.0  5.607784
O   0.749368   5.0       5.0
H        0.0   5.0  5.607784
H  -3.501264   6.0  5.607784
O  -4.250632   6.0       5.0
H       -5.0   6.0  5.607784
H   3.498736   6.0  5.607784
O   2.749368   6.0       5.0
H        2.0   6.0  5.607784
H   5.498736   7.0  5.607784
O   4.749368   7.0       5.0
H        4.0   7.0  5.607784
H   0.498736  -8.0  6.607784
O  -0.250632  -8.0       6.0
H       -1.0  -8.0  6.607784
H   2.498736  -7.0  6.607784
O   1.749368  -7.0       6.0
H        1.0  -7.0  6.607784
H  -3.501264  -6.0  6.607784
O  -4.250632  -6.0       6.0
H       -5.0  -6.0  6.607784
H  -0.501264  -6.0  6.607784
O  -1.250632  -6.0       6.0
H       -2.0  -6.0  6.607784
H   4.498736  -6.0  6.607784
O   3.749368  -6.0       6.0
H        3.0  -6.0  6.607784
H   1.498736  -5.0  6.607784
O   0.749368  -5.0       6.0
H        0.0  -5.0  6.607784
H  -4.501264  -4.0  6.607784
O  -5.250632  -4.0       6.0
H       -6.0  -4.0  6.607784
H  -1.501264  -4.0  6.607784
O  -2.250632  -4.0       6.0
H       -3.0  -4.0  6.607784
H   6.498736  -4.0  6.607784
O   5.749368  -4.0       6.0
H        5.0  -4.0  6.607784
H   4.498736  -3.0  6.607784
O   3.749368  -3.0       6.0
H        3.0  -3.0  6.607784
H  -0.501264  -2.0  6.607784
O  -1.250632  -2.0       6.0
H       -2.0  -2.0  6.607784
H   7.498736  -1.0  6.607784
O   6.749368  -1.0       6.0
H        6.0  -1.0  6.607784
H  -6.501264   0.0  6.607784
O  -7.250632   0.0       6.0
H       -8.0   0.0  6.607784
H  -4.501264   1.0  6.607784
O  -5.250632   1.0       6.0
H       -6.0   1.0  6.607784
H  -2.501264   2.0  6.607784
O  -3.250632   2.0       6.0
H       -4.0   2.0  6.607784
H   1.498736   2.0  6.607784
O   0.749368   2.0       6.0
H        0.0   2.0  6.607784
H   4.498736   4.0  6.607784
O   3.749368   4.0       6.0
H        3.0   4.0  6.607784
H  -1.501264   6.0  6.607784
O  -2.250632   6.0       6.0
H       -3.0   6.0  6.607784
H   0.498736   7.0  6.607784
O  -0.250632   7.0       6.0
H       -1.0   7.0  6.607784
H   1.498736  -3.0  7.607784
O   0.749368  -3.0       7.0
H        0.0  -3.0  7.607784
H  -4.501264  -2.0  7.607784
O  -5.250632  -2.0       7.0
H       -6.0  -2.0  7.607784
H  -2.501264  -1.0  7.607784
O  -3.250632  -1.0       7.0
H       -4.0  -1.0  7.607784
H   2.498736  -1.0  7.607784
O   1.749368  -1.0       7.0
H        1.0  -1.0  7.607784
H   5.498736  -1.0  7.607784
O   4.749368  -1.0       7.0
H        4.0  -1.0  7.607784
H  -0.501264   0.0  7.607784
O  -1.250632   0.0       7.0
H       -2.0   0.0  7.607784
H   3.498736   1.0  7.607784
O   2.749368   1.0       7.0
H        2.0   1.0  7.607784
H   6.498736   1.0  7.607784
O   5.749368   1.0       7.0
H        5.0   1.0  7.607784
H  -4.501264   3.0  7.607784
O  -5.250632   3.0       7.0
H       -6.0   3.0  7.607784
H  -0.501264   3.0  7.607784
O  -1.250632   3.0       7.0
H       -2.0   3.0  7.607784
H  -2.501264   4.0  7.607784
O  -3.250632   4.0       7.0
H       -4.0   4.0  7.607784
H   1.498736   4.0  7.607784
O   0.749368   4.0       7.0
H        0.0   4.0  7.607784
H   2.498736   6.0  7.607784
O   1.749368   6.0       7.0
H        1.0   6.0  7.607784
H  -1.501264  -5.0  8.607784
O  -2.250632  -5.0       8.0
H       -3.0  -5.0  8.607784
H   2.498736  -5.0  8.607784
O   1.749368  -5.0       8.0
H        1.0  -5.0  8.607784
H   4.498736  -4.0  8.607784
O   3.749368  -4.0       8.0
H        3.0  -4.0  8.607784
H  -2.501264  -3.0  8.607784
O  -3.250632  -3.0       8.0
H       -4.0  -3.0  8.607784
H  -4.501264   0.0  8.607784
O  -5.250632   0.0       8.0
H       -6.0   0.0  8.607784
H  -2.501264   1.0  8.607784
O  -3.250632   1.0       8.0
H       -4.0   1.0  8.607784
H   1.498736   1.0  8.607784
O   0.749368   1.0       8.0
H        0.0   1.0  8.607784
H   3.498736   3.0  8.607784
O   2.749368   3.0       8.0
H        2.0   3.0  8.607784
H  -0.501264   5.0  8.607784
O  -1.250632   5.0       8.0
H       -2.0   5.0  8.607784
H   0.498736  -4.0  9.607784
O  -0.250632  -4.0       9.0
H       -1.0  -4.0  9.607784
H   2.498736  -3.0  9.607784
O   1.749368  -3.0       9.0
H        1.0  -3.0  9.607784
H  -0.501264  -2.0  9.607784
O  -1.250632  -2.0       9.0
H       -2.0  -2.0  9.607784
H   1.498736  -1.0  9.607784
O   0.749368  -1.0       9.0
H        0.0  -1.0  9.607784
H   3.498736   0.0  9.607784
O   2.749368   0.0       9.0
H        2.0   0.0  9.607784
H  -0.501264   1.0  9.607784
O  -1.250632   1.0       9.0
H       -2.0   1.0  9.607784
H  -1.501264   3.0  9.607784
O  -2.250632   3.0       9.0
H       -3.0   3.0  9.607784
H   1.498736   3.0  9.607784
O   0.749368   3.0       9.0
H        0.0   3.0  9.607784